* NGSPICE file created from merge1.ext - technology: sky130A

.subckt sky130_fd_pr__pfet_01v8_564V44 a_n2867_n400# a_n1519_n497# a_n487_n497# a_n1261_n497#
+ a_487_n400# a_n29_n400# a_2609_n497# a_545_n497# a_2351_n497# a_2293_n400# a_n1835_n400#
+ a_1577_n497# a_n2809_n497# a_1519_n400# a_n803_n400# a_n2093_n400# a_n2551_n497#
+ a_1261_n400# a_n1777_n497# a_n1319_n400# a_29_n497# a_n287_n400# a_n1061_n400# a_n745_n497#
+ a_2809_n400# a_803_n497# a_n2035_n497# a_745_n400# a_2551_n400# a_1777_n400# a_n2609_n400#
+ a_1835_n497# a_n229_n497# a_n2351_n400# a_287_n497# a_n1003_n497# a_2093_n497# a_229_n400#
+ a_n1577_n400# a_2035_n400# a_n545_n400# a_1319_n497# w_n3005_n619# a_n2293_n497#
+ a_1061_n497# a_1003_n400#
X0 a_n1577_n400# a_n1777_n497# a_n1835_n400# w_n3005_n619# sky130_fd_pr__pfet_01v8 ad=0.58 pd=4.29 as=0.58 ps=4.29 w=4 l=1
X1 a_1519_n400# a_1319_n497# a_1261_n400# w_n3005_n619# sky130_fd_pr__pfet_01v8 ad=0.58 pd=4.29 as=0.58 ps=4.29 w=4 l=1
X2 a_n1061_n400# a_n1261_n497# a_n1319_n400# w_n3005_n619# sky130_fd_pr__pfet_01v8 ad=0.58 pd=4.29 as=0.58 ps=4.29 w=4 l=1
X3 a_745_n400# a_545_n497# a_487_n400# w_n3005_n619# sky130_fd_pr__pfet_01v8 ad=0.58 pd=4.29 as=0.58 ps=4.29 w=4 l=1
X4 a_1003_n400# a_803_n497# a_745_n400# w_n3005_n619# sky130_fd_pr__pfet_01v8 ad=0.58 pd=4.29 as=0.58 ps=4.29 w=4 l=1
X5 a_487_n400# a_287_n497# a_229_n400# w_n3005_n619# sky130_fd_pr__pfet_01v8 ad=0.58 pd=4.29 as=0.58 ps=4.29 w=4 l=1
X6 a_1777_n400# a_1577_n497# a_1519_n400# w_n3005_n619# sky130_fd_pr__pfet_01v8 ad=0.58 pd=4.29 as=0.58 ps=4.29 w=4 l=1
X7 a_2035_n400# a_1835_n497# a_1777_n400# w_n3005_n619# sky130_fd_pr__pfet_01v8 ad=0.58 pd=4.29 as=0.58 ps=4.29 w=4 l=1
X8 a_n2609_n400# a_n2809_n497# a_n2867_n400# w_n3005_n619# sky130_fd_pr__pfet_01v8 ad=0.58 pd=4.29 as=1.16 ps=8.58 w=4 l=1
X9 a_1261_n400# a_1061_n497# a_1003_n400# w_n3005_n619# sky130_fd_pr__pfet_01v8 ad=0.58 pd=4.29 as=0.58 ps=4.29 w=4 l=1
X10 a_n1835_n400# a_n2035_n497# a_n2093_n400# w_n3005_n619# sky130_fd_pr__pfet_01v8 ad=0.58 pd=4.29 as=0.58 ps=4.29 w=4 l=1
X11 a_2809_n400# a_2609_n497# a_2551_n400# w_n3005_n619# sky130_fd_pr__pfet_01v8 ad=1.16 pd=8.58 as=0.58 ps=4.29 w=4 l=1
X12 a_n2351_n400# a_n2551_n497# a_n2609_n400# w_n3005_n619# sky130_fd_pr__pfet_01v8 ad=0.58 pd=4.29 as=0.58 ps=4.29 w=4 l=1
X13 a_n2093_n400# a_n2293_n497# a_n2351_n400# w_n3005_n619# sky130_fd_pr__pfet_01v8 ad=0.58 pd=4.29 as=0.58 ps=4.29 w=4 l=1
X14 a_n29_n400# a_n229_n497# a_n287_n400# w_n3005_n619# sky130_fd_pr__pfet_01v8 ad=0.58 pd=4.29 as=0.58 ps=4.29 w=4 l=1
X15 a_229_n400# a_29_n497# a_n29_n400# w_n3005_n619# sky130_fd_pr__pfet_01v8 ad=0.58 pd=4.29 as=0.58 ps=4.29 w=4 l=1
X16 a_n1319_n400# a_n1519_n497# a_n1577_n400# w_n3005_n619# sky130_fd_pr__pfet_01v8 ad=0.58 pd=4.29 as=0.58 ps=4.29 w=4 l=1
X17 a_2551_n400# a_2351_n497# a_2293_n400# w_n3005_n619# sky130_fd_pr__pfet_01v8 ad=0.58 pd=4.29 as=0.58 ps=4.29 w=4 l=1
X18 a_n545_n400# a_n745_n497# a_n803_n400# w_n3005_n619# sky130_fd_pr__pfet_01v8 ad=0.58 pd=4.29 as=0.58 ps=4.29 w=4 l=1
X19 a_n287_n400# a_n487_n497# a_n545_n400# w_n3005_n619# sky130_fd_pr__pfet_01v8 ad=0.58 pd=4.29 as=0.58 ps=4.29 w=4 l=1
X20 a_2293_n400# a_2093_n497# a_2035_n400# w_n3005_n619# sky130_fd_pr__pfet_01v8 ad=0.58 pd=4.29 as=0.58 ps=4.29 w=4 l=1
X21 a_n803_n400# a_n1003_n497# a_n1061_n400# w_n3005_n619# sky130_fd_pr__pfet_01v8 ad=0.58 pd=4.29 as=0.58 ps=4.29 w=4 l=1
.ends

.subckt sky130_fd_pr__nfet_01v8_ACGK3H a_n2093_n200# a_1261_n200# a_1319_n288# a_n2293_n288#
+ a_n1319_n200# a_1061_n288# a_n287_n200# a_n1061_n200# a_n1519_n288# a_2809_n200#
+ a_745_n200# a_n487_n288# a_n1261_n288# a_2551_n200# a_2609_n288# a_545_n288# a_1777_n200#
+ a_n2609_n200# a_2351_n288# a_n2351_n200# a_1577_n288# a_229_n200# a_n2809_n288#
+ a_n1577_n200# a_n2551_n288# a_2035_n200# a_n545_n200# a_29_n288# a_n1777_n288# a_n745_n288#
+ a_n2969_n374# a_1003_n200# a_803_n288# a_n2035_n288# a_n2867_n200# a_487_n200# a_n29_n200#
+ a_1835_n288# a_2293_n200# a_n229_n288# a_n1835_n200# a_287_n288# a_n1003_n288# a_n803_n200#
+ a_2093_n288# a_1519_n200#
X0 a_1003_n200# a_803_n288# a_745_n200# a_n2969_n374# sky130_fd_pr__nfet_01v8 ad=0.29 pd=2.29 as=0.29 ps=2.29 w=2 l=1
X1 a_745_n200# a_545_n288# a_487_n200# a_n2969_n374# sky130_fd_pr__nfet_01v8 ad=0.29 pd=2.29 as=0.29 ps=2.29 w=2 l=1
X2 a_487_n200# a_287_n288# a_229_n200# a_n2969_n374# sky130_fd_pr__nfet_01v8 ad=0.29 pd=2.29 as=0.29 ps=2.29 w=2 l=1
X3 a_1777_n200# a_1577_n288# a_1519_n200# a_n2969_n374# sky130_fd_pr__nfet_01v8 ad=0.29 pd=2.29 as=0.29 ps=2.29 w=2 l=1
X4 a_2035_n200# a_1835_n288# a_1777_n200# a_n2969_n374# sky130_fd_pr__nfet_01v8 ad=0.29 pd=2.29 as=0.29 ps=2.29 w=2 l=1
X5 a_n2609_n200# a_n2809_n288# a_n2867_n200# a_n2969_n374# sky130_fd_pr__nfet_01v8 ad=0.29 pd=2.29 as=0.58 ps=4.58 w=2 l=1
X6 a_1261_n200# a_1061_n288# a_1003_n200# a_n2969_n374# sky130_fd_pr__nfet_01v8 ad=0.29 pd=2.29 as=0.29 ps=2.29 w=2 l=1
X7 a_n1835_n200# a_n2035_n288# a_n2093_n200# a_n2969_n374# sky130_fd_pr__nfet_01v8 ad=0.29 pd=2.29 as=0.29 ps=2.29 w=2 l=1
X8 a_2809_n200# a_2609_n288# a_2551_n200# a_n2969_n374# sky130_fd_pr__nfet_01v8 ad=0.58 pd=4.58 as=0.29 ps=2.29 w=2 l=1
X9 a_n2351_n200# a_n2551_n288# a_n2609_n200# a_n2969_n374# sky130_fd_pr__nfet_01v8 ad=0.29 pd=2.29 as=0.29 ps=2.29 w=2 l=1
X10 a_n2093_n200# a_n2293_n288# a_n2351_n200# a_n2969_n374# sky130_fd_pr__nfet_01v8 ad=0.29 pd=2.29 as=0.29 ps=2.29 w=2 l=1
X11 a_n29_n200# a_n229_n288# a_n287_n200# a_n2969_n374# sky130_fd_pr__nfet_01v8 ad=0.29 pd=2.29 as=0.29 ps=2.29 w=2 l=1
X12 a_229_n200# a_29_n288# a_n29_n200# a_n2969_n374# sky130_fd_pr__nfet_01v8 ad=0.29 pd=2.29 as=0.29 ps=2.29 w=2 l=1
X13 a_n1319_n200# a_n1519_n288# a_n1577_n200# a_n2969_n374# sky130_fd_pr__nfet_01v8 ad=0.29 pd=2.29 as=0.29 ps=2.29 w=2 l=1
X14 a_2551_n200# a_2351_n288# a_2293_n200# a_n2969_n374# sky130_fd_pr__nfet_01v8 ad=0.29 pd=2.29 as=0.29 ps=2.29 w=2 l=1
X15 a_n545_n200# a_n745_n288# a_n803_n200# a_n2969_n374# sky130_fd_pr__nfet_01v8 ad=0.29 pd=2.29 as=0.29 ps=2.29 w=2 l=1
X16 a_n287_n200# a_n487_n288# a_n545_n200# a_n2969_n374# sky130_fd_pr__nfet_01v8 ad=0.29 pd=2.29 as=0.29 ps=2.29 w=2 l=1
X17 a_2293_n200# a_2093_n288# a_2035_n200# a_n2969_n374# sky130_fd_pr__nfet_01v8 ad=0.29 pd=2.29 as=0.29 ps=2.29 w=2 l=1
X18 a_n803_n200# a_n1003_n288# a_n1061_n200# a_n2969_n374# sky130_fd_pr__nfet_01v8 ad=0.29 pd=2.29 as=0.29 ps=2.29 w=2 l=1
X19 a_n1577_n200# a_n1777_n288# a_n1835_n200# a_n2969_n374# sky130_fd_pr__nfet_01v8 ad=0.29 pd=2.29 as=0.29 ps=2.29 w=2 l=1
X20 a_1519_n200# a_1319_n288# a_1261_n200# a_n2969_n374# sky130_fd_pr__nfet_01v8 ad=0.29 pd=2.29 as=0.29 ps=2.29 w=2 l=1
X21 a_n1061_n200# a_n1261_n288# a_n1319_n200# a_n2969_n374# sky130_fd_pr__nfet_01v8 ad=0.29 pd=2.29 as=0.29 ps=2.29 w=2 l=1
.ends

.subckt Quantizer Vss InP InN OP ON vdd Clk
Xsky130_fd_pr__pfet_01v8_564V44_0 NodeA1 vdd Clk Clk vdd vdd vdd Clk Clk NodeA2 NodeA1
+ Clk vdd vdd ON vdd Clk OP Clk ON ON ON vdd Clk NodeA2 Clk Clk OP vdd NodeA2 vdd
+ Clk OP NodeA1 Clk Clk Clk OP vdd vdd vdd vdd vdd Clk Clk vdd sky130_fd_pr__pfet_01v8_564V44
Xsky130_fd_pr__nfet_01v8_ACGK3H_0 ON NodeA2 ON Vss NodeA1 InN Vss m1_1798_488# OP
+ Vss NodeA2 Clk InP OP Vss InN Vss ON Vss Vss Vss Vss Vss ON Vss OP m1_1798_488#
+ Clk Vss InP Vss m1_1798_488# InN Vss Vss m1_1798_488# m1_1798_488# Vss Vss Clk Vss
+ Clk InP NodeA1 Vss OP sky130_fd_pr__nfet_01v8_ACGK3H
.ends

.subckt sky130_fd_pr__pfet_01v8_T2K7LE a_10261_n3500# a_8203_n3500# a_8261_n3597#
+ a_n16493_n3500# a_12319_n3500# a_12377_n3597# a_n2029_n3597# a_n6203_n3500# a_n14377_n3597#
+ a_n10319_n3500# a_14435_n3597# a_29_n3597# a_n16435_n3597# a_2087_n3597# a_2029_n3500#
+ a_14377_n3500# a_n4087_n3597# a_n8261_n3500# a_4145_n3597# a_n12377_n3500# a_16435_n3500#
+ a_n6145_n3597# a_6203_n3597# a_n14435_n3500# a_10319_n3597# a_n10261_n3597# a_n8203_n3597#
+ w_n16631_n3719# a_n12319_n3597# a_4087_n3500# a_6145_n3500# a_n29_n3500# a_n2087_n3500#
+ a_n4145_n3500#
X0 a_14377_n3500# a_12377_n3597# a_12319_n3500# w_n16631_n3719# sky130_fd_pr__pfet_01v8 ad=5.075 pd=35.29 as=5.075 ps=35.29 w=35 l=10
X1 a_10261_n3500# a_8261_n3597# a_8203_n3500# w_n16631_n3719# sky130_fd_pr__pfet_01v8 ad=5.075 pd=35.29 as=5.075 ps=35.29 w=35 l=10
X2 a_n14435_n3500# a_n16435_n3597# a_n16493_n3500# w_n16631_n3719# sky130_fd_pr__pfet_01v8 ad=5.075 pd=35.29 as=10.15 ps=70.58 w=35 l=10
X3 a_4087_n3500# a_2087_n3597# a_2029_n3500# w_n16631_n3719# sky130_fd_pr__pfet_01v8 ad=5.075 pd=35.29 as=5.075 ps=35.29 w=35 l=10
X4 a_n6203_n3500# a_n8203_n3597# a_n8261_n3500# w_n16631_n3719# sky130_fd_pr__pfet_01v8 ad=5.075 pd=35.29 as=5.075 ps=35.29 w=35 l=10
X5 a_n29_n3500# a_n2029_n3597# a_n2087_n3500# w_n16631_n3719# sky130_fd_pr__pfet_01v8 ad=5.075 pd=35.29 as=5.075 ps=35.29 w=35 l=10
X6 a_2029_n3500# a_29_n3597# a_n29_n3500# w_n16631_n3719# sky130_fd_pr__pfet_01v8 ad=5.075 pd=35.29 as=5.075 ps=35.29 w=35 l=10
X7 a_16435_n3500# a_14435_n3597# a_14377_n3500# w_n16631_n3719# sky130_fd_pr__pfet_01v8 ad=10.15 pd=70.58 as=5.075 ps=35.29 w=35 l=10
X8 a_n2087_n3500# a_n4087_n3597# a_n4145_n3500# w_n16631_n3719# sky130_fd_pr__pfet_01v8 ad=5.075 pd=35.29 as=5.075 ps=35.29 w=35 l=10
X9 a_6145_n3500# a_4145_n3597# a_4087_n3500# w_n16631_n3719# sky130_fd_pr__pfet_01v8 ad=5.075 pd=35.29 as=5.075 ps=35.29 w=35 l=10
X10 a_n10319_n3500# a_n12319_n3597# a_n12377_n3500# w_n16631_n3719# sky130_fd_pr__pfet_01v8 ad=5.075 pd=35.29 as=5.075 ps=35.29 w=35 l=10
X11 a_n12377_n3500# a_n14377_n3597# a_n14435_n3500# w_n16631_n3719# sky130_fd_pr__pfet_01v8 ad=5.075 pd=35.29 as=5.075 ps=35.29 w=35 l=10
X12 a_n8261_n3500# a_n10261_n3597# a_n10319_n3500# w_n16631_n3719# sky130_fd_pr__pfet_01v8 ad=5.075 pd=35.29 as=5.075 ps=35.29 w=35 l=10
X13 a_n4145_n3500# a_n6145_n3597# a_n6203_n3500# w_n16631_n3719# sky130_fd_pr__pfet_01v8 ad=5.075 pd=35.29 as=5.075 ps=35.29 w=35 l=10
X14 a_12319_n3500# a_10319_n3597# a_10261_n3500# w_n16631_n3719# sky130_fd_pr__pfet_01v8 ad=5.075 pd=35.29 as=5.075 ps=35.29 w=35 l=10
X15 a_8203_n3500# a_6203_n3597# a_6145_n3500# w_n16631_n3719# sky130_fd_pr__pfet_01v8 ad=5.075 pd=35.29 as=5.075 ps=35.29 w=35 l=10
.ends

.subckt sky130_fd_pr__nfet_01v8_NJ4FLX a_n14377_n2088# a_n30841_n2088# a_14435_n2088#
+ a_29_n2088# a_28783_n2000# a_n14435_n2000# a_20551_n2000# a_n16435_n2088# a_4087_n2000#
+ a_n26783_n2000# a_26783_n2088# a_32899_n2000# a_22609_n2000# a_n33059_n2174# a_n28783_n2088#
+ a_n2087_n2000# a_2087_n2088# a_6145_n2000# a_n29_n2000# a_n20609_n2000# a_n28841_n2000#
+ a_n30899_n2000# a_30899_n2088# a_28841_n2088# a_20609_n2088# a_n20551_n2088# a_n4087_n2088#
+ a_18493_n2000# a_n22609_n2088# a_n32899_n2088# a_10261_n2000# a_n4145_n2000# a_4145_n2088#
+ a_8203_n2000# a_n32957_n2000# a_16493_n2088# a_n16493_n2000# a_n6145_n2088# a_12319_n2000#
+ a_n6203_n2000# a_6203_n2088# a_n18493_n2088# a_18551_n2088# a_10319_n2088# a_n10261_n2088#
+ a_24667_n2000# a_n10319_n2000# a_n18551_n2000# a_n8203_n2088# a_n12319_n2088# a_n22667_n2000#
+ a_22667_n2088# a_26725_n2000# a_n24667_n2088# a_2029_n2000# a_n24725_n2000# a_24725_n2088#
+ a_30841_n2000# a_14377_n2000# a_n26725_n2088# a_n8261_n2000# a_8261_n2088# a_12377_n2088#
+ a_16435_n2000# a_n12377_n2000# a_n2029_n2088#
X0 a_n26783_n2000# a_n28783_n2088# a_n28841_n2000# a_n33059_n2174# sky130_fd_pr__nfet_01v8 ad=2.9 pd=20.29 as=2.9 ps=20.29 w=20 l=10
X1 a_n6203_n2000# a_n8203_n2088# a_n8261_n2000# a_n33059_n2174# sky130_fd_pr__nfet_01v8 ad=2.9 pd=20.29 as=2.9 ps=20.29 w=20 l=10
X2 a_n29_n2000# a_n2029_n2088# a_n2087_n2000# a_n33059_n2174# sky130_fd_pr__nfet_01v8 ad=2.9 pd=20.29 as=2.9 ps=20.29 w=20 l=10
X3 a_2029_n2000# a_29_n2088# a_n29_n2000# a_n33059_n2174# sky130_fd_pr__nfet_01v8 ad=2.9 pd=20.29 as=2.9 ps=20.29 w=20 l=10
X4 a_16435_n2000# a_14435_n2088# a_14377_n2000# a_n33059_n2174# sky130_fd_pr__nfet_01v8 ad=2.9 pd=20.29 as=2.9 ps=20.29 w=20 l=10
X5 a_n2087_n2000# a_n4087_n2088# a_n4145_n2000# a_n33059_n2174# sky130_fd_pr__nfet_01v8 ad=2.9 pd=20.29 as=2.9 ps=20.29 w=20 l=10
X6 a_6145_n2000# a_4145_n2088# a_4087_n2000# a_n33059_n2174# sky130_fd_pr__nfet_01v8 ad=2.9 pd=20.29 as=2.9 ps=20.29 w=20 l=10
X7 a_n10319_n2000# a_n12319_n2088# a_n12377_n2000# a_n33059_n2174# sky130_fd_pr__nfet_01v8 ad=2.9 pd=20.29 as=2.9 ps=20.29 w=20 l=10
X8 a_18493_n2000# a_16493_n2088# a_16435_n2000# a_n33059_n2174# sky130_fd_pr__nfet_01v8 ad=2.9 pd=20.29 as=2.9 ps=20.29 w=20 l=10
X9 a_n30899_n2000# a_n32899_n2088# a_n32957_n2000# a_n33059_n2174# sky130_fd_pr__nfet_01v8 ad=2.9 pd=20.29 as=5.8 ps=40.58 w=20 l=10
X10 a_n12377_n2000# a_n14377_n2088# a_n14435_n2000# a_n33059_n2174# sky130_fd_pr__nfet_01v8 ad=2.9 pd=20.29 as=2.9 ps=20.29 w=20 l=10
X11 a_26725_n2000# a_24725_n2088# a_24667_n2000# a_n33059_n2174# sky130_fd_pr__nfet_01v8 ad=2.9 pd=20.29 as=2.9 ps=20.29 w=20 l=10
X12 a_n20609_n2000# a_n22609_n2088# a_n22667_n2000# a_n33059_n2174# sky130_fd_pr__nfet_01v8 ad=2.9 pd=20.29 as=2.9 ps=20.29 w=20 l=10
X13 a_28783_n2000# a_26783_n2088# a_26725_n2000# a_n33059_n2174# sky130_fd_pr__nfet_01v8 ad=2.9 pd=20.29 as=2.9 ps=20.29 w=20 l=10
X14 a_n22667_n2000# a_n24667_n2088# a_n24725_n2000# a_n33059_n2174# sky130_fd_pr__nfet_01v8 ad=2.9 pd=20.29 as=2.9 ps=20.29 w=20 l=10
X15 a_n8261_n2000# a_n10261_n2088# a_n10319_n2000# a_n33059_n2174# sky130_fd_pr__nfet_01v8 ad=2.9 pd=20.29 as=2.9 ps=20.29 w=20 l=10
X16 a_n4145_n2000# a_n6145_n2088# a_n6203_n2000# a_n33059_n2174# sky130_fd_pr__nfet_01v8 ad=2.9 pd=20.29 as=2.9 ps=20.29 w=20 l=10
X17 a_12319_n2000# a_10319_n2088# a_10261_n2000# a_n33059_n2174# sky130_fd_pr__nfet_01v8 ad=2.9 pd=20.29 as=2.9 ps=20.29 w=20 l=10
X18 a_8203_n2000# a_6203_n2088# a_6145_n2000# a_n33059_n2174# sky130_fd_pr__nfet_01v8 ad=2.9 pd=20.29 as=2.9 ps=20.29 w=20 l=10
X19 a_32899_n2000# a_30899_n2088# a_30841_n2000# a_n33059_n2174# sky130_fd_pr__nfet_01v8 ad=5.8 pd=40.58 as=2.9 ps=20.29 w=20 l=10
X20 a_20551_n2000# a_18551_n2088# a_18493_n2000# a_n33059_n2174# sky130_fd_pr__nfet_01v8 ad=2.9 pd=20.29 as=2.9 ps=20.29 w=20 l=10
X21 a_14377_n2000# a_12377_n2088# a_12319_n2000# a_n33059_n2174# sky130_fd_pr__nfet_01v8 ad=2.9 pd=20.29 as=2.9 ps=20.29 w=20 l=10
X22 a_n18551_n2000# a_n20551_n2088# a_n20609_n2000# a_n33059_n2174# sky130_fd_pr__nfet_01v8 ad=2.9 pd=20.29 as=2.9 ps=20.29 w=20 l=10
X23 a_10261_n2000# a_8261_n2088# a_8203_n2000# a_n33059_n2174# sky130_fd_pr__nfet_01v8 ad=2.9 pd=20.29 as=2.9 ps=20.29 w=20 l=10
X24 a_n14435_n2000# a_n16435_n2088# a_n16493_n2000# a_n33059_n2174# sky130_fd_pr__nfet_01v8 ad=2.9 pd=20.29 as=2.9 ps=20.29 w=20 l=10
X25 a_4087_n2000# a_2087_n2088# a_2029_n2000# a_n33059_n2174# sky130_fd_pr__nfet_01v8 ad=2.9 pd=20.29 as=2.9 ps=20.29 w=20 l=10
X26 a_22609_n2000# a_20609_n2088# a_20551_n2000# a_n33059_n2174# sky130_fd_pr__nfet_01v8 ad=2.9 pd=20.29 as=2.9 ps=20.29 w=20 l=10
X27 a_n16493_n2000# a_n18493_n2088# a_n18551_n2000# a_n33059_n2174# sky130_fd_pr__nfet_01v8 ad=2.9 pd=20.29 as=2.9 ps=20.29 w=20 l=10
X28 a_30841_n2000# a_28841_n2088# a_28783_n2000# a_n33059_n2174# sky130_fd_pr__nfet_01v8 ad=2.9 pd=20.29 as=2.9 ps=20.29 w=20 l=10
X29 a_24667_n2000# a_22667_n2088# a_22609_n2000# a_n33059_n2174# sky130_fd_pr__nfet_01v8 ad=2.9 pd=20.29 as=2.9 ps=20.29 w=20 l=10
X30 a_n28841_n2000# a_n30841_n2088# a_n30899_n2000# a_n33059_n2174# sky130_fd_pr__nfet_01v8 ad=2.9 pd=20.29 as=2.9 ps=20.29 w=20 l=10
X31 a_n24725_n2000# a_n26725_n2088# a_n26783_n2000# a_n33059_n2174# sky130_fd_pr__nfet_01v8 ad=2.9 pd=20.29 as=2.9 ps=20.29 w=20 l=10
.ends

.subckt integrator vdd BiasP1 InP InN OP ON BiasN1 BiasN2 BiasTail BiasP2 vss
Xsky130_fd_pr__pfet_01v8_T2K7LE_0 NodeA vdd BiasP2 vdd ON BiasP1 BiasP2 NodeB BiasP1
+ NodeB vdd BiasP2 vdd BiasP2 NodeA NodeA BiasP2 vdd BiasP2 OP vdd BiasP2 BiasP2 NodeB
+ BiasP1 BiasP2 BiasP2 vdd BiasP1 vdd NodeA vdd NodeB vdd sky130_fd_pr__pfet_01v8_T2K7LE
Xsky130_fd_pr__nfet_01v8_NJ4FLX_0 InP BiasN1 InN ON vss Tail1 ON InP Tail1 m1_2132_284#
+ BiasN1 vss m1_55634_430# vss BiasN1 m1_26822_988# BiasTail m1_26822_988# vss OP
+ vss m1_2132_284# vss BiasN1 BiasN2 vss BiasTail vss BiasN2 vss Tail1 Tail1 BiasTail
+ vss vss vss NodeB BiasTail NodeA m1_26822_988# vss vss vss InN vss vss Tail1 vss
+ vss InP m1_2132_284# BiasN1 m1_55634_430# BiasN1 m1_26822_988# vss BiasN1 m1_55634_430#
+ Tail1 BiasN1 vss vss InN NodeA NodeB OP sky130_fd_pr__nfet_01v8_NJ4FLX
X0 ON OP sky130_fd_pr__cap_mim_m3_2 l=14.62 w=31.83
X1 OP ON sky130_fd_pr__cap_mim_m3_2 l=14.62 w=31.83
.ends

.subckt sky130_fd_sc_hd__decap_4 VGND VPWR VNB VPB
X0 VPWR VGND VPWR VPB sky130_fd_pr__pfet_01v8_hvt ad=0.4524 pd=4.52 as=0.2262 ps=2.26 w=0.87 l=1.05
X1 VGND VPWR VGND VNB sky130_fd_pr__nfet_01v8 ad=0.286 pd=3.24 as=0.143 ps=1.62 w=0.55 l=1.05
.ends

.subckt sky130_fd_sc_hd__decap_8 VPWR VGND VNB VPB
X0 VPWR VGND VPWR VPB sky130_fd_pr__pfet_01v8_hvt ad=0.4524 pd=4.52 as=0.2262 ps=2.26 w=0.87 l=2.89
X1 VGND VPWR VGND VNB sky130_fd_pr__nfet_01v8 ad=0.286 pd=3.24 as=0.143 ps=1.62 w=0.55 l=2.89
.ends

.subckt sky130_fd_sc_hd__decap_3 VPWR VGND VNB VPB
X0 VPWR VGND VPWR VPB sky130_fd_pr__pfet_01v8_hvt ad=0.4524 pd=4.52 as=0.2262 ps=2.26 w=0.87 l=0.59
X1 VGND VPWR VGND VNB sky130_fd_pr__nfet_01v8 ad=0.286 pd=3.24 as=0.143 ps=1.62 w=0.55 l=0.59
.ends

.subckt sky130_fd_sc_hd__dfrtp_1 VGND VPWR CLK D RESET_B Q VNB VPB
X0 a_1217_47# a_27_47# a_1108_47# VNB sky130_fd_pr__nfet_01v8 ad=0.0669 pd=0.75 as=0.0711 ps=0.755 w=0.36 l=0.15
X1 a_805_47# a_761_289# a_639_47# VNB sky130_fd_pr__nfet_01v8 ad=0.0441 pd=0.63 as=0.1401 ps=1.1 w=0.42 l=0.15
X2 a_1108_47# a_193_47# a_761_289# VNB sky130_fd_pr__nfet_01v8 ad=0.0711 pd=0.755 as=0.0999 ps=0.985 w=0.36 l=0.15
X3 a_1283_21# a_1108_47# a_1462_47# VNB sky130_fd_pr__nfet_01v8 ad=0.1092 pd=1.36 as=0.06405 ps=0.725 w=0.42 l=0.15
X4 a_651_413# a_27_47# a_543_47# VPB sky130_fd_pr__pfet_01v8_hvt ad=0.1155 pd=0.97 as=0.07245 ps=0.765 w=0.42 l=0.15
X5 VGND RESET_B a_805_47# VNB sky130_fd_pr__nfet_01v8 ad=0.1346 pd=1.15 as=0.0441 ps=0.63 w=0.42 l=0.15
X6 Q a_1283_21# VPWR VPB sky130_fd_pr__pfet_01v8_hvt ad=0.26 pd=2.52 as=0.3012 ps=2.66 w=1 l=0.15
X7 VPWR CLK a_27_47# VPB sky130_fd_pr__pfet_01v8_hvt ad=0.0864 pd=0.91 as=0.1664 ps=1.8 w=0.64 l=0.15
X8 a_448_47# D VPWR VPB sky130_fd_pr__pfet_01v8_hvt ad=0.0651 pd=0.73 as=0.1092 ps=1.36 w=0.42 l=0.15
X9 a_761_289# a_543_47# VGND VNB sky130_fd_pr__nfet_01v8 ad=0.0999 pd=0.985 as=0.1346 ps=1.15 w=0.64 l=0.15
X10 a_193_47# a_27_47# VGND VNB sky130_fd_pr__nfet_01v8 ad=0.1092 pd=1.36 as=0.0567 ps=0.69 w=0.42 l=0.15
X11 a_1108_47# a_27_47# a_761_289# VPB sky130_fd_pr__pfet_01v8_hvt ad=0.0588 pd=0.7 as=0.12915 ps=1.185 w=0.42 l=0.15
X12 a_543_47# a_27_47# a_448_47# VNB sky130_fd_pr__nfet_01v8 ad=0.0594 pd=0.69 as=0.066 ps=0.745 w=0.36 l=0.15
X13 a_1462_47# RESET_B VGND VNB sky130_fd_pr__nfet_01v8 ad=0.06405 pd=0.725 as=0.12495 ps=1.015 w=0.42 l=0.15
X14 a_543_47# a_193_47# a_448_47# VPB sky130_fd_pr__pfet_01v8_hvt ad=0.07245 pd=0.765 as=0.0651 ps=0.73 w=0.42 l=0.15
X15 a_448_47# D VGND VNB sky130_fd_pr__nfet_01v8 ad=0.066 pd=0.745 as=0.2205 ps=1.89 w=0.42 l=0.15
X16 VPWR a_1283_21# a_1270_413# VPB sky130_fd_pr__pfet_01v8_hvt ad=0.0819 pd=0.81 as=0.0567 ps=0.69 w=0.42 l=0.15
X17 VPWR a_1108_47# a_1283_21# VPB sky130_fd_pr__pfet_01v8_hvt ad=0.1134 pd=1.38 as=0.0567 ps=0.69 w=0.42 l=0.15
X18 a_1270_413# a_193_47# a_1108_47# VPB sky130_fd_pr__pfet_01v8_hvt ad=0.0567 pd=0.69 as=0.0588 ps=0.7 w=0.42 l=0.15
X19 a_193_47# a_27_47# VPWR VPB sky130_fd_pr__pfet_01v8_hvt ad=0.1664 pd=1.8 as=0.0864 ps=0.91 w=0.64 l=0.15
X20 a_1283_21# RESET_B VPWR VPB sky130_fd_pr__pfet_01v8_hvt ad=0.0567 pd=0.69 as=0.0819 ps=0.81 w=0.42 l=0.15
X21 VPWR a_761_289# a_651_413# VPB sky130_fd_pr__pfet_01v8_hvt ad=0.07035 pd=0.755 as=0.1155 ps=0.97 w=0.42 l=0.15
X22 Q a_1283_21# VGND VNB sky130_fd_pr__nfet_01v8 ad=0.169 pd=1.82 as=0.2087 ps=2.02 w=0.65 l=0.15
X23 a_639_47# a_193_47# a_543_47# VNB sky130_fd_pr__nfet_01v8 ad=0.1401 pd=1.1 as=0.0594 ps=0.69 w=0.36 l=0.15
X24 VGND a_1283_21# a_1217_47# VNB sky130_fd_pr__nfet_01v8 ad=0.12495 pd=1.015 as=0.0669 ps=0.75 w=0.42 l=0.15
X25 a_651_413# RESET_B VPWR VPB sky130_fd_pr__pfet_01v8_hvt ad=0.1092 pd=1.36 as=0.07035 ps=0.755 w=0.42 l=0.15
X26 VGND CLK a_27_47# VNB sky130_fd_pr__nfet_01v8 ad=0.0567 pd=0.69 as=0.1092 ps=1.36 w=0.42 l=0.15
X27 a_761_289# a_543_47# VPWR VPB sky130_fd_pr__pfet_01v8_hvt ad=0.12915 pd=1.185 as=0.2184 ps=2.2 w=0.84 l=0.15
.ends

.subckt sky130_fd_sc_hd__clkbuf_1 VGND VPWR X A VNB VPB
X0 VPWR a_75_212# X VPB sky130_fd_pr__pfet_01v8_hvt ad=0.11455 pd=1.08 as=0.2054 ps=2.1 w=0.79 l=0.15
X1 a_75_212# A VGND VNB sky130_fd_pr__nfet_01v8 ad=0.1352 pd=1.56 as=0.0754 ps=0.81 w=0.52 l=0.15
X2 a_75_212# A VPWR VPB sky130_fd_pr__pfet_01v8_hvt ad=0.2054 pd=2.1 as=0.11455 ps=1.08 w=0.79 l=0.15
X3 VGND a_75_212# X VNB sky130_fd_pr__nfet_01v8 ad=0.0754 pd=0.81 as=0.1352 ps=1.56 w=0.52 l=0.15
.ends

.subckt sky130_fd_sc_hd__decap_6 VPWR VGND VNB VPB
X0 VPWR VGND VPWR VPB sky130_fd_pr__pfet_01v8_hvt ad=0.4524 pd=4.52 as=0.2262 ps=2.26 w=0.87 l=1.97
X1 VGND VPWR VGND VNB sky130_fd_pr__nfet_01v8 ad=0.286 pd=3.24 as=0.143 ps=1.62 w=0.55 l=1.97
.ends

.subckt sky130_fd_sc_hd__mux2_1 VGND VPWR X A1 S A0 VNB VPB
X0 VPWR a_505_21# a_535_374# VPB sky130_fd_pr__pfet_01v8_hvt ad=0.0693 pd=0.75 as=0.0441 ps=0.63 w=0.42 l=0.15
X1 a_505_21# S VPWR VPB sky130_fd_pr__pfet_01v8_hvt ad=0.1176 pd=1.4 as=0.0693 ps=0.75 w=0.42 l=0.15
X2 a_218_374# S VPWR VPB sky130_fd_pr__pfet_01v8_hvt ad=0.07665 pd=0.785 as=0.15835 ps=1.395 w=0.42 l=0.15
X3 VGND a_505_21# a_439_47# VNB sky130_fd_pr__nfet_01v8 ad=0.1449 pd=1.11 as=0.0693 ps=0.75 w=0.42 l=0.15
X4 a_76_199# A0 a_218_374# VPB sky130_fd_pr__pfet_01v8_hvt ad=0.1932 pd=1.34 as=0.07665 ps=0.785 w=0.42 l=0.15
X5 a_505_21# S VGND VNB sky130_fd_pr__nfet_01v8 ad=0.1092 pd=1.36 as=0.1449 ps=1.11 w=0.42 l=0.15
X6 a_439_47# A0 a_76_199# VNB sky130_fd_pr__nfet_01v8 ad=0.0693 pd=0.75 as=0.09975 ps=0.895 w=0.42 l=0.15
X7 a_535_374# A1 a_76_199# VPB sky130_fd_pr__pfet_01v8_hvt ad=0.0441 pd=0.63 as=0.1932 ps=1.34 w=0.42 l=0.15
X8 a_76_199# A1 a_218_47# VNB sky130_fd_pr__nfet_01v8 ad=0.09975 pd=0.895 as=0.0693 ps=0.75 w=0.42 l=0.15
X9 a_218_47# S VGND VNB sky130_fd_pr__nfet_01v8 ad=0.0693 pd=0.75 as=0.11285 ps=1.045 w=0.42 l=0.15
X10 VPWR a_76_199# X VPB sky130_fd_pr__pfet_01v8_hvt ad=0.15835 pd=1.395 as=0.26 ps=2.52 w=1 l=0.15
X11 VGND a_76_199# X VNB sky130_fd_pr__nfet_01v8 ad=0.11285 pd=1.045 as=0.169 ps=1.82 w=0.65 l=0.15
.ends

.subckt sky130_fd_sc_hd__clkbuf_8 X A VGND VPWR VNB VPB
X0 VPWR A a_110_47# VPB sky130_fd_pr__pfet_01v8_hvt ad=0.14 pd=1.28 as=0.14 ps=1.28 w=1 l=0.15
X1 VPWR a_110_47# X VPB sky130_fd_pr__pfet_01v8_hvt ad=0.14 pd=1.28 as=0.14 ps=1.28 w=1 l=0.15
X2 X a_110_47# VPWR VPB sky130_fd_pr__pfet_01v8_hvt ad=0.14 pd=1.28 as=0.14 ps=1.28 w=1 l=0.15
X3 a_110_47# A VPWR VPB sky130_fd_pr__pfet_01v8_hvt ad=0.14 pd=1.28 as=0.265 ps=2.53 w=1 l=0.15
X4 X a_110_47# VGND VNB sky130_fd_pr__nfet_01v8 ad=0.0588 pd=0.7 as=0.0588 ps=0.7 w=0.42 l=0.15
X5 X a_110_47# VPWR VPB sky130_fd_pr__pfet_01v8_hvt ad=0.14 pd=1.28 as=0.14 ps=1.28 w=1 l=0.15
X6 VGND a_110_47# X VNB sky130_fd_pr__nfet_01v8 ad=0.0588 pd=0.7 as=0.0588 ps=0.7 w=0.42 l=0.15
X7 VPWR a_110_47# X VPB sky130_fd_pr__pfet_01v8_hvt ad=0.14 pd=1.28 as=0.14 ps=1.28 w=1 l=0.15
X8 VGND A a_110_47# VNB sky130_fd_pr__nfet_01v8 ad=0.0588 pd=0.7 as=0.0588 ps=0.7 w=0.42 l=0.15
X9 VGND a_110_47# X VNB sky130_fd_pr__nfet_01v8 ad=0.1134 pd=1.38 as=0.0588 ps=0.7 w=0.42 l=0.15
X10 a_110_47# A VGND VNB sky130_fd_pr__nfet_01v8 ad=0.0588 pd=0.7 as=0.1113 ps=1.37 w=0.42 l=0.15
X11 VPWR a_110_47# X VPB sky130_fd_pr__pfet_01v8_hvt ad=0.14 pd=1.28 as=0.14 ps=1.28 w=1 l=0.15
X12 X a_110_47# VPWR VPB sky130_fd_pr__pfet_01v8_hvt ad=0.14 pd=1.28 as=0.14 ps=1.28 w=1 l=0.15
X13 VGND a_110_47# X VNB sky130_fd_pr__nfet_01v8 ad=0.0588 pd=0.7 as=0.0588 ps=0.7 w=0.42 l=0.15
X14 VGND a_110_47# X VNB sky130_fd_pr__nfet_01v8 ad=0.0588 pd=0.7 as=0.0588 ps=0.7 w=0.42 l=0.15
X15 X a_110_47# VPWR VPB sky130_fd_pr__pfet_01v8_hvt ad=0.14 pd=1.28 as=0.14 ps=1.28 w=1 l=0.15
X16 X a_110_47# VGND VNB sky130_fd_pr__nfet_01v8 ad=0.0588 pd=0.7 as=0.0588 ps=0.7 w=0.42 l=0.15
X17 VPWR a_110_47# X VPB sky130_fd_pr__pfet_01v8_hvt ad=0.265 pd=2.53 as=0.14 ps=1.28 w=1 l=0.15
X18 X a_110_47# VGND VNB sky130_fd_pr__nfet_01v8 ad=0.0588 pd=0.7 as=0.0588 ps=0.7 w=0.42 l=0.15
X19 X a_110_47# VGND VNB sky130_fd_pr__nfet_01v8 ad=0.0588 pd=0.7 as=0.0588 ps=0.7 w=0.42 l=0.15
.ends

.subckt sky130_fd_sc_hd__clkbuf_4 VGND VPWR A X VNB VPB
X0 VPWR A a_27_47# VPB sky130_fd_pr__pfet_01v8_hvt ad=0.165 pd=1.33 as=0.265 ps=2.53 w=1 l=0.15
X1 VGND a_27_47# X VNB sky130_fd_pr__nfet_01v8 ad=0.1218 pd=1.42 as=0.0588 ps=0.7 w=0.42 l=0.15
X2 VGND a_27_47# X VNB sky130_fd_pr__nfet_01v8 ad=0.0588 pd=0.7 as=0.0588 ps=0.7 w=0.42 l=0.15
X3 X a_27_47# VPWR VPB sky130_fd_pr__pfet_01v8_hvt ad=0.14 pd=1.28 as=0.14 ps=1.28 w=1 l=0.15
X4 X a_27_47# VGND VNB sky130_fd_pr__nfet_01v8 ad=0.0588 pd=0.7 as=0.0588 ps=0.7 w=0.42 l=0.15
X5 VGND A a_27_47# VNB sky130_fd_pr__nfet_01v8 ad=0.07035 pd=0.755 as=0.1113 ps=1.37 w=0.42 l=0.15
X6 VPWR a_27_47# X VPB sky130_fd_pr__pfet_01v8_hvt ad=0.3 pd=2.6 as=0.14 ps=1.28 w=1 l=0.15
X7 X a_27_47# VGND VNB sky130_fd_pr__nfet_01v8 ad=0.0588 pd=0.7 as=0.07035 ps=0.755 w=0.42 l=0.15
X8 X a_27_47# VPWR VPB sky130_fd_pr__pfet_01v8_hvt ad=0.14 pd=1.28 as=0.165 ps=1.33 w=1 l=0.15
X9 VPWR a_27_47# X VPB sky130_fd_pr__pfet_01v8_hvt ad=0.14 pd=1.28 as=0.14 ps=1.28 w=1 l=0.15
.ends

.subckt sky130_fd_sc_hd__buf_2 VPWR VGND X A VNB VPB
X0 VPWR a_27_47# X VPB sky130_fd_pr__pfet_01v8_hvt ad=0.265 pd=2.53 as=0.135 ps=1.27 w=1 l=0.15
X1 X a_27_47# VPWR VPB sky130_fd_pr__pfet_01v8_hvt ad=0.135 pd=1.27 as=0.149 ps=1.325 w=1 l=0.15
X2 VPWR A a_27_47# VPB sky130_fd_pr__pfet_01v8_hvt ad=0.149 pd=1.325 as=0.1664 ps=1.8 w=0.64 l=0.15
X3 X a_27_47# VGND VNB sky130_fd_pr__nfet_01v8 ad=0.08775 pd=0.92 as=0.097 ps=0.975 w=0.65 l=0.15
X4 VGND a_27_47# X VNB sky130_fd_pr__nfet_01v8 ad=0.17225 pd=1.83 as=0.08775 ps=0.92 w=0.65 l=0.15
X5 VGND A a_27_47# VNB sky130_fd_pr__nfet_01v8 ad=0.097 pd=0.975 as=0.1092 ps=1.36 w=0.42 l=0.15
.ends

.subckt sky130_fd_sc_hd__dlygate4sd3_1 X A VGND VPWR VNB VPB
X0 VPWR A a_49_47# VPB sky130_fd_pr__pfet_01v8_hvt ad=0.0567 pd=0.69 as=0.1092 ps=1.36 w=0.42 l=0.15
X1 VGND a_285_47# a_391_47# VNB sky130_fd_pr__nfet_01v8 ad=0.097 pd=0.975 as=0.1092 ps=1.36 w=0.42 l=0.5
X2 X a_391_47# VPWR VPB sky130_fd_pr__pfet_01v8_hvt ad=0.26 pd=2.52 as=0.14075 ps=1.325 w=1 l=0.15
X3 VGND A a_49_47# VNB sky130_fd_pr__nfet_01v8 ad=0.0567 pd=0.69 as=0.1092 ps=1.36 w=0.42 l=0.15
X4 VPWR a_285_47# a_391_47# VPB sky130_fd_pr__pfet_01v8_hvt ad=0.14075 pd=1.325 as=0.1092 ps=1.36 w=0.42 l=0.5
X5 a_285_47# a_49_47# VGND VNB sky130_fd_pr__nfet_01v8 ad=0.1092 pd=1.36 as=0.0567 ps=0.69 w=0.42 l=0.5
X6 a_285_47# a_49_47# VPWR VPB sky130_fd_pr__pfet_01v8_hvt ad=0.1092 pd=1.36 as=0.0567 ps=0.69 w=0.42 l=0.5
X7 X a_391_47# VGND VNB sky130_fd_pr__nfet_01v8 ad=0.169 pd=1.82 as=0.097 ps=0.975 w=0.65 l=0.15
.ends

.subckt sky130_fd_sc_hd__conb_1 LO HI VPB VNB VGND VPWR
R0 HI VPWR sky130_fd_pr__res_generic_po w=0.48 l=0.045
R1 VGND LO sky130_fd_pr__res_generic_po w=0.48 l=0.045
.ends

.subckt sky130_fd_sc_hd__nor2b_2 VGND VPWR Y A B_N VNB VPB
X0 Y a_251_21# a_27_297# VPB sky130_fd_pr__pfet_01v8_hvt ad=0.135 pd=1.27 as=0.135 ps=1.27 w=1 l=0.15
X1 Y a_251_21# VGND VNB sky130_fd_pr__nfet_01v8 ad=0.08775 pd=0.92 as=0.08775 ps=0.92 w=0.65 l=0.15
X2 a_27_297# A VPWR VPB sky130_fd_pr__pfet_01v8_hvt ad=0.135 pd=1.27 as=0.135 ps=1.27 w=1 l=0.15
X3 VGND A Y VNB sky130_fd_pr__nfet_01v8 ad=0.08775 pd=0.92 as=0.08775 ps=0.92 w=0.65 l=0.15
X4 Y A VGND VNB sky130_fd_pr__nfet_01v8 ad=0.08775 pd=0.92 as=0.17875 ps=1.85 w=0.65 l=0.15
X5 VGND a_251_21# Y VNB sky130_fd_pr__nfet_01v8 ad=0.169 pd=1.82 as=0.08775 ps=0.92 w=0.65 l=0.15
X6 VPWR A a_27_297# VPB sky130_fd_pr__pfet_01v8_hvt ad=0.135 pd=1.27 as=0.28 ps=2.56 w=1 l=0.15
X7 VPWR B_N a_251_21# VPB sky130_fd_pr__pfet_01v8_hvt ad=0.1092 pd=1.36 as=0.1092 ps=1.36 w=0.42 l=0.15
X8 VGND B_N a_251_21# VNB sky130_fd_pr__nfet_01v8 ad=0.1092 pd=1.36 as=0.1092 ps=1.36 w=0.42 l=0.15
X9 a_27_297# a_251_21# Y VPB sky130_fd_pr__pfet_01v8_hvt ad=0.26 pd=2.52 as=0.135 ps=1.27 w=1 l=0.15
.ends

.subckt sky130_fd_sc_hd__clkbuf_16 VGND VPWR A X VNB VPB
X0 VPWR A a_110_47# VPB sky130_fd_pr__pfet_01v8_hvt ad=0.14 pd=1.28 as=0.14 ps=1.28 w=1 l=0.15
X1 VPWR a_110_47# X VPB sky130_fd_pr__pfet_01v8_hvt ad=0.14 pd=1.28 as=0.14 ps=1.28 w=1 l=0.15
X2 X a_110_47# VPWR VPB sky130_fd_pr__pfet_01v8_hvt ad=0.14 pd=1.28 as=0.14 ps=1.28 w=1 l=0.15
X3 X a_110_47# VPWR VPB sky130_fd_pr__pfet_01v8_hvt ad=0.14 pd=1.28 as=0.14 ps=1.28 w=1 l=0.15
X4 VPWR a_110_47# X VPB sky130_fd_pr__pfet_01v8_hvt ad=0.14 pd=1.28 as=0.14 ps=1.28 w=1 l=0.15
X5 VPWR a_110_47# X VPB sky130_fd_pr__pfet_01v8_hvt ad=0.265 pd=2.53 as=0.14 ps=1.28 w=1 l=0.15
X6 a_110_47# A VPWR VPB sky130_fd_pr__pfet_01v8_hvt ad=0.14 pd=1.28 as=0.265 ps=2.53 w=1 l=0.15
X7 a_110_47# A VGND VNB sky130_fd_pr__nfet_01v8 ad=0.0588 pd=0.7 as=0.0588 ps=0.7 w=0.42 l=0.15
X8 VGND a_110_47# X VNB sky130_fd_pr__nfet_01v8 ad=0.0588 pd=0.7 as=0.0588 ps=0.7 w=0.42 l=0.15
X9 X a_110_47# VGND VNB sky130_fd_pr__nfet_01v8 ad=0.0588 pd=0.7 as=0.0588 ps=0.7 w=0.42 l=0.15
X10 VGND a_110_47# X VNB sky130_fd_pr__nfet_01v8 ad=0.0588 pd=0.7 as=0.0588 ps=0.7 w=0.42 l=0.15
X11 a_110_47# A VPWR VPB sky130_fd_pr__pfet_01v8_hvt ad=0.14 pd=1.28 as=0.14 ps=1.28 w=1 l=0.15
X12 VGND A a_110_47# VNB sky130_fd_pr__nfet_01v8 ad=0.0588 pd=0.7 as=0.0588 ps=0.7 w=0.42 l=0.15
X13 VGND a_110_47# X VNB sky130_fd_pr__nfet_01v8 ad=0.05775 pd=0.695 as=0.0588 ps=0.7 w=0.42 l=0.15
X14 VPWR a_110_47# X VPB sky130_fd_pr__pfet_01v8_hvt ad=0.14 pd=1.28 as=0.14 ps=1.28 w=1 l=0.15
X15 X a_110_47# VPWR VPB sky130_fd_pr__pfet_01v8_hvt ad=0.14 pd=1.28 as=0.14 ps=1.28 w=1 l=0.15
X16 VGND A a_110_47# VNB sky130_fd_pr__nfet_01v8 ad=0.0588 pd=0.7 as=0.0588 ps=0.7 w=0.42 l=0.15
X17 VGND a_110_47# X VNB sky130_fd_pr__nfet_01v8 ad=0.1113 pd=1.37 as=0.0588 ps=0.7 w=0.42 l=0.15
X18 VPWR a_110_47# X VPB sky130_fd_pr__pfet_01v8_hvt ad=0.1375 pd=1.275 as=0.14 ps=1.28 w=1 l=0.15
X19 VGND a_110_47# X VNB sky130_fd_pr__nfet_01v8 ad=0.0588 pd=0.7 as=0.0588 ps=0.7 w=0.42 l=0.15